LVTestCase/Loads3.txt
New Load.LOAD1 Phases=1 Bus1=10.1 kV=0.23 kW=2.689 kvar=0.521
New Load.LOAD2 Phases=1 Bus1=5.3 kV=0.23 kW=3.038 kvar=0.563
New Load.LOAD3 Phases=1 Bus1=7.1 kV=0.23 kW=2.160 kvar=0.521
New Load.LOAD4 Phases=1 Bus1=13.3 kV=0.23 kW=2.775 kvar=0.492
New Load.LOAD5 Phases=1 Bus1=11.3 kV=0.23 kW=6.370 kvar=1.176
New Load.LOAD6 Phases=1 Bus1=12.1 kV=0.23 kW=4.103 kvar=1.174
New Load.LOAD7 Phases=1 Bus1=21.3 kV=0.23 kW=1.873 kvar=0.260
New Load.LOAD8 Phases=1 Bus1=25.2 kV=0.23 kW=4.958 kvar=1.199
New Load.LOAD9 Phases=1 Bus1=33.1 kV=0.23 kW=1.808 kvar=0.441
New Load.LOAD10 Phases=1 Bus1=26.3 kV=0.23 kW=4.691 kvar=0.534
New Load.LOAD11 Phases=1 Bus1=29.3 kV=0.23 kW=8.816 kvar=0.576
New Load.LOAD12 Phases=1 Bus1=30.2 kV=0.23 kW=4.804 kvar=0.851
New Load.LOAD13 Phases=3 Bus1=37.1.2.3 kV=0.23 kW=6.750 kvar=2.093
New Load.LOAD14 Phases=1 Bus1=34.2 kV=0.23 kW=1.283 kvar=0.320
New Load.LOAD15 Phases=1 Bus1=39.2 kV=0.23 kW=9.379 kvar=0.716
New Load.LOAD16 Phases=1 Bus1=40.2 kV=0.23 kW=4.511 kvar=0.783
New Load.LOAD17 Phases=1 Bus1=42.1 kV=0.23 kW=2.739 kvar=0.803
New Load.LOAD18 Phases=1 Bus1=49.1 kV=0.23 kW=6.439 kvar=0.803
New Load.LOAD19 Phases=1 Bus1=46.2 kV=0.23 kW=4.459 kvar=0.771
New Load.LOAD20 Phases=1 Bus1=50.2 kV=0.23 kW=2.468 kvar=0.602
New Load.LOAD21 Phases=1 Bus1=47.1 kV=0.23 kW=4.234 kvar=0.773
New Load.LOAD22 Phases=1 Bus1=45.3 kV=0.23 kW=5.078 kvar=1.052
New Load.LOAD23 Phases=1 Bus1=52.2 kV=0.23 kW=1.853 kvar=0.454
New Load.LOAD24 Phases=3 Bus1=76.1.2.3 kV=0.23 kW=6.750 kvar=2.093
New Load.LOAD25 Phases=1 Bus1=67.1 kV=0.23 kW=1.913 kvar=0.470
New Load.LOAD26 Phases=1 Bus1=57.2 kV=0.23 kW=4.796 kvar=0.853
New Load.LOAD27 Phases=1 Bus1=72.3 kV=0.23 kW=8.111 kvar=0.412
New Load.LOAD28 Phases=1 Bus1=66.1 kV=0.23 kW=1.073 kvar=0.286
New Load.LOAD29 Phases=1 Bus1=81.3 kV=0.23 kW=3.851 kvar=0.449
New Load.LOAD30 Phases=1 Bus1=80.3 kV=0.23 kW=5.340 kvar=1.109
New Load.LOAD31 Phases=1 Bus1=75.1 kV=0.23 kW=1.395 kvar=0.521
New Load.LOAD32 Phases=1 Bus1=77.1 kV=0.23 kW=1.538 kvar=0.563
New Load.LOAD33 Phases=1 Bus1=54.2 kV=0.23 kW=2.890 kvar=0.521
New Load.LOAD34 Phases=1 Bus1=64.3 kV=0.23 kW=2.775 kvar=0.492
New Load.LOAD35 Phases=1 Bus1=62.1 kV=0.23 kW=4.655 kvar=1.272
New Load.LOAD36 Phases=3 Bus1=60.1.2.3 kV=0.23 kW=6.750 kvar=2.093
New Load.LOAD37 Phases=1 Bus1=97.3 kV=0.23 kW=1.748 kvar=0.260
New Load.LOAD38 Phases=1 Bus1=73.1 kV=0.23 kW=4.001 kvar=0.722
New Load.LOAD39 Phases=1 Bus1=83.3 kV=0.23 kW=8.276 kvar=0.441
New Load.LOAD40 Phases=1 Bus1=103.1 kV=0.23 kW=2.801 kvar=0.563
New Load.LOAD41 Phases=1 Bus1=106.3 kV=0.23 kW=3.098 kvar=0.576
New Load.LOAD42 Phases=1 Bus1=107.3 kV=0.23 kW=3.938 kvar=0.776
New Load.LOAD43 Phases=1 Bus1=95.1 kV=0.23 kW=9.049 kvar=0.812
New Load.LOAD44 Phases=1 Bus1=87.1 kV=0.23 kW=1.826 kvar=0.320
New Load.LOAD45 Phases=1 Bus1=88.3 kV=0.23 kW=3.585 kvar=0.698
New Load.LOAD46 Phases=1 Bus1=115.2 kV=0.23 kW=3.422 kvar=0.783
New Load.LOAD47 Phases=1 Bus1=112.1 kV=0.23 kW=6.469 kvar=0.813
New Load.LOAD48 Phases=1 Bus1=93.3 kV=0.23 kW=4.654 kvar=0.817
New Load.LOAD49 Phases=1 Bus1=102.3 kV=0.23 kW=4.013 kvar=0.796
New Load.LOAD50 Phases=1 Bus1=96.2 kV=0.23 kW=4.279 kvar=0.602
New Load.LOAD51 Phases=1 Bus1=104.2 kV=0.23 kW=3.503 kvar=0.851
New Load.LOAD52 Phases=1 Bus1=113.1 kV=0.23 kW=1.741 kvar=0.410
New Load.LOAD53 Phases=1 Bus1=116.2 kV=0.23 kW=4.860 kvar=1.174
New Load.LOAD54 Phases=1 Bus1=110.2 kV=0.23 kW=3.619 kvar=0.576
New Load.LOAD55 Phases=1 Bus1=114.2 kV=0.23 kW=9.619 kvar=0.776
